<?xml version="1.0" encoding="UTF-8"?>

<!-- generated on 12/16/20 10:47:06 by Eclipse SUMO netedit Version 1.2.0
<configuration xmlns:xsi="http://www.w3.org/2001/XMLSchema-instance" xsi:noNamespaceSchemaLocation="http://sumo.dlr.de/xsd/netconvertConfiguration.xsd">

    <input>
        <sumo-net-file value="C:\Users\Anselm\Documents\Uni\Master\AR-VR-mini-project\models\oldenburg_ofener_str.net.xml"/>
    </input>

    <output>
        <output-file value="C:\Users\Anselm\Documents\Uni\Master\AR-VR-mini-project\models\oldenburg_ofener_str.net.xml"/>
    </output>

    <processing>
        <geometry.max-grade.fix value="false"/>
        <offset.disable-normalization value="true"/>
        <lefthand value="false"/>
    </processing>

    <junctions>
        <no-turnarounds value="true"/>
        <junctions.corner-detail value="5"/>
        <junctions.limit-turn-speed value="5.5"/>
        <rectangular-lane-cut value="false"/>
    </junctions>

    <pedestrian>
        <walkingareas value="false"/>
    </pedestrian>

</configuration>
-->

<net version="1.1" junctionCornerDetail="5" limitTurnSpeed="5.50" xmlns:xsi="http://www.w3.org/2001/XMLSchema-instance" xsi:noNamespaceSchemaLocation="http://sumo.dlr.de/xsd/net_file.xsd">

    <location netOffset="-446020.53,-5887887.33" convBoundary="0.00,190.67,1230.67,905.59" origBoundary="8.131251,53.137556,8.213179,53.150642" projParameter="+proj=utm +zone=32 +ellps=WGS84 +datum=WGS84 +units=m +no_defs"/>

    <type id="highway.bridleway" priority="1" numLanes="1" speed="2.78" allow="pedestrian" oneway="1" width="2.00"/>
    <type id="highway.bus_guideway" priority="1" numLanes="1" speed="27.78" allow="bus" oneway="1"/>
    <type id="highway.cycleway" priority="1" numLanes="1" speed="8.33" allow="bicycle" oneway="0" width="1.00"/>
    <type id="highway.footway" priority="1" numLanes="1" speed="2.78" allow="pedestrian" oneway="1" width="2.00"/>
    <type id="highway.ford" priority="1" numLanes="1" speed="2.78" allow="army" oneway="0"/>
    <type id="highway.living_street" priority="2" numLanes="1" speed="2.78" disallow="tram rail_urban rail rail_electric ship" oneway="0"/>
    <type id="highway.motorway" priority="14" numLanes="2" speed="39.44" allow="private emergency authority army vip passenger hov taxi bus coach delivery truck trailer motorcycle evehicle custom1 custom2" oneway="1"/>
    <type id="highway.motorway_link" priority="9" numLanes="1" speed="22.22" allow="private emergency authority army vip passenger hov taxi bus coach delivery truck trailer motorcycle evehicle custom1 custom2" oneway="1"/>
    <type id="highway.path" priority="1" numLanes="1" speed="2.78" allow="bicycle pedestrian" oneway="1" width="2.00"/>
    <type id="highway.pedestrian" priority="1" numLanes="1" speed="2.78" allow="pedestrian" oneway="1" width="2.00"/>
    <type id="highway.primary" priority="12" numLanes="2" speed="27.78" disallow="tram rail_urban rail rail_electric ship" oneway="0"/>
    <type id="highway.primary_link" priority="7" numLanes="1" speed="22.22" disallow="tram rail_urban rail rail_electric ship" oneway="0"/>
    <type id="highway.raceway" priority="15" numLanes="2" speed="83.33" allow="vip" oneway="0"/>
    <type id="highway.residential" priority="3" numLanes="1" speed="13.89" disallow="tram rail_urban rail rail_electric ship" oneway="0"/>
    <type id="highway.secondary" priority="11" numLanes="2" speed="27.78" disallow="tram rail_urban rail rail_electric ship" oneway="0"/>
    <type id="highway.secondary_link" priority="6" numLanes="1" speed="22.22" disallow="tram rail_urban rail rail_electric ship" oneway="0"/>
    <type id="highway.service" priority="1" numLanes="1" speed="5.56" allow="delivery bicycle pedestrian" oneway="0"/>
    <type id="highway.stairs" priority="1" numLanes="1" speed="1.39" allow="pedestrian" oneway="1" width="2.00"/>
    <type id="highway.step" priority="1" numLanes="1" speed="1.39" allow="pedestrian" oneway="1" width="2.00"/>
    <type id="highway.steps" priority="1" numLanes="1" speed="1.39" allow="pedestrian" oneway="1" width="2.00"/>
    <type id="highway.tertiary" priority="10" numLanes="1" speed="22.22" disallow="tram rail_urban rail rail_electric ship" oneway="0"/>
    <type id="highway.tertiary_link" priority="5" numLanes="1" speed="22.22" disallow="tram rail_urban rail rail_electric ship" oneway="0"/>
    <type id="highway.track" priority="1" numLanes="1" speed="5.56" disallow="tram rail_urban rail rail_electric ship" oneway="0"/>
    <type id="highway.trunk" priority="13" numLanes="2" speed="27.78" disallow="tram rail_urban rail rail_electric bicycle pedestrian ship" oneway="0"/>
    <type id="highway.trunk_link" priority="8" numLanes="1" speed="22.22" disallow="tram rail_urban rail rail_electric bicycle pedestrian ship" oneway="0"/>
    <type id="highway.unclassified" priority="4" numLanes="1" speed="13.89" disallow="tram rail_urban rail rail_electric ship" oneway="0"/>
    <type id="highway.unsurfaced" priority="1" numLanes="1" speed="8.33" disallow="tram rail_urban rail rail_electric ship" oneway="0"/>
    <type id="railway.light_rail" priority="19" numLanes="1" speed="27.78" allow="rail_urban" oneway="1"/>
    <type id="railway.preserved" priority="16" numLanes="1" speed="27.78" allow="rail" oneway="1"/>
    <type id="railway.rail" priority="20" numLanes="1" speed="83.33" allow="rail rail_electric" oneway="1"/>
    <type id="railway.subway" priority="18" numLanes="1" speed="27.78" allow="rail_urban" oneway="1"/>
    <type id="railway.tram" priority="17" numLanes="1" speed="13.89" allow="tram" oneway="1"/>

    <edge id=":1183046857_0" function="internal">
        <lane id=":1183046857_0_0" index="0" allow="bicycle pedestrian" speed="2.78" length="0.10" width="2.00" shape="1005.92,385.01 1005.92,385.01"/>
    </edge>
    <edge id=":165020681_0" function="internal">
        <lane id=":165020681_0_0" index="0" disallow="tram rail_urban rail rail_electric ship" speed="6.06" length="7.67" shape="595.87,410.95 595.36,409.32 594.20,408.22 592.39,407.66 589.93,407.65"/>
    </edge>
    <edge id=":165020681_1" function="internal">
        <lane id=":165020681_1_0" index="0" disallow="tram rail_urban rail rail_electric ship" speed="8.33" length="9.44" shape="595.87,410.95 594.92,401.56"/>
    </edge>
    <edge id=":165020681_2" function="internal">
        <lane id=":165020681_2_0" index="0" disallow="tram rail_urban rail rail_electric ship" speed="3.85" length="5.46" shape="595.87,410.95 595.78,409.27 596.25,408.34 597.28,408.15 598.87,408.72"/>
    </edge>
    <edge id=":165020681_3" function="internal">
        <lane id=":165020681_3_0" index="0" disallow="tram rail_urban rail rail_electric ship" speed="5.60" length="6.36" shape="604.25,406.21 601.83,406.60 600.13,407.14 599.14,407.85 598.87,408.72"/>
    </edge>
    <edge id=":165020681_4" function="internal">
        <lane id=":165020681_4_0" index="0" disallow="tram rail_urban rail rail_electric ship" speed="8.33" length="14.39" shape="604.25,406.21 589.93,407.65"/>
    </edge>
    <edge id=":165020681_5" function="internal">
        <lane id=":165020681_5_0" index="0" disallow="tram rail_urban rail rail_electric ship" speed="7.32" length="11.73" shape="604.25,406.21 600.39,406.28 597.55,405.53 595.73,403.95 594.92,401.56"/>
    </edge>
    <edge id=":165020681_6" function="internal">
        <lane id=":165020681_6_0" index="0" disallow="tram rail_urban rail rail_electric ship" speed="8.33" length="7.53" shape="598.10,401.23 598.87,408.72"/>
    </edge>
    <edge id=":165020681_7" function="internal">
        <lane id=":165020681_7_0" index="0" disallow="tram rail_urban rail rail_electric ship" speed="7.29" length="11.72" shape="598.10,401.23 597.81,403.74 596.35,405.64 593.72,406.95 589.93,407.65"/>
    </edge>
    <edge id=":165020681_8" function="internal">
        <lane id=":165020681_8_0" index="0" disallow="tram rail_urban rail rail_electric ship" speed="3.65" length="4.67" shape="598.10,401.23 597.43,402.51 596.68,402.99 595.84,402.67 594.92,401.56"/>
    </edge>
    <edge id=":165748872_0" function="internal">
        <lane id=":165748872_0_0" index="0" disallow="tram rail_urban rail rail_electric ship" speed="13.89" length="6.57" shape="1055.14,408.21 1052.79,402.01"/>
        <lane id=":165748872_0_1" index="1" disallow="tram rail_urban rail rail_electric ship" speed="13.89" length="6.57" shape="1058.10,406.98 1055.79,400.90"/>
    </edge>
    <edge id=":165748872_2" function="internal">
        <lane id=":165748872_2_0" index="0" disallow="tram rail_urban rail rail_electric ship" speed="3.65" length="2.34" shape="1058.10,406.98 1058.38,405.57 1058.96,404.89"/>
    </edge>
    <edge id=":165748872_5" function="internal">
        <lane id=":165748872_5_0" index="0" disallow="tram rail_urban rail rail_electric ship" speed="3.65" length="2.34" shape="1058.96,404.89 1059.86,404.96 1061.05,405.76"/>
    </edge>
    <edge id=":165748872_3" function="internal">
        <lane id=":165748872_3_0" index="0" disallow="tram rail_urban rail rail_electric ship" speed="13.89" length="6.38" shape="1058.80,399.79 1061.05,405.76"/>
    </edge>
    <edge id=":165748872_4" function="internal">
        <lane id=":165748872_4_0" index="0" disallow="tram rail_urban rail rail_electric ship" speed="3.65" length="2.34" shape="1058.80,399.79 1058.46,401.20 1057.85,401.85"/>
    </edge>
    <edge id=":165748872_6" function="internal">
        <lane id=":165748872_6_0" index="0" disallow="tram rail_urban rail rail_electric ship" speed="3.65" length="2.34" shape="1057.85,401.85 1056.96,401.75 1055.79,400.90"/>
    </edge>
    <edge id=":165748894_0" function="internal">
        <lane id=":165748894_0_0" index="0" disallow="tram rail_urban rail rail_electric ship" speed="3.65" length="4.67" shape="1188.54,482.64 1189.27,483.88 1189.28,484.78 1188.57,485.32 1187.14,485.52"/>
    </edge>
    <edge id=":1789135278_0" function="internal">
        <lane id=":1789135278_0_0" index="0" disallow="tram rail_urban rail rail_electric ship" speed="11.11" length="0.15" shape="595.90,411.26 595.89,411.10"/>
    </edge>
    <edge id=":1789135278_1" function="internal">
        <lane id=":1789135278_1_0" index="0" disallow="tram rail_urban rail rail_electric ship" speed="11.11" length="2.03" shape="598.89,408.92 599.09,410.94"/>
    </edge>
    <edge id=":1928229573_0" function="internal">
        <lane id=":1928229573_0_0" index="0" disallow="tram rail_urban rail rail_electric ship" speed="13.89" length="3.83" shape="610.18,437.10 606.37,437.46"/>
        <lane id=":1928229573_0_1" index="1" disallow="tram rail_urban rail rail_electric ship" speed="13.89" length="3.83" shape="609.88,433.91 606.05,434.28"/>
    </edge>
    <edge id=":1928229573_2" function="internal">
        <lane id=":1928229573_2_0" index="0" disallow="tram rail_urban rail rail_electric ship" speed="3.65" length="2.34" shape="609.88,433.91 608.62,433.23 608.14,432.47"/>
    </edge>
    <edge id=":1928229573_6" function="internal">
        <lane id=":1928229573_6_0" index="0" disallow="tram rail_urban rail rail_electric ship" speed="3.65" length="2.34" shape="608.14,432.47 608.47,431.63 609.59,430.73"/>
    </edge>
    <edge id=":1928229573_3" function="internal">
        <lane id=":1928229573_3_0" index="0" disallow="tram rail_urban rail rail_electric ship" speed="13.89" length="3.89" shape="605.41,427.91 609.30,427.54"/>
        <lane id=":1928229573_3_1" index="1" disallow="tram rail_urban rail rail_electric ship" speed="13.89" length="3.89" shape="605.73,431.09 609.59,430.73"/>
    </edge>
    <edge id=":1928229573_5" function="internal">
        <lane id=":1928229573_5_0" index="0" disallow="tram rail_urban rail rail_electric ship" speed="3.65" length="2.34" shape="605.73,431.09 607.00,431.77 607.48,432.52"/>
    </edge>
    <edge id=":1928229573_7" function="internal">
        <lane id=":1928229573_7_0" index="0" disallow="tram rail_urban rail rail_electric ship" speed="3.65" length="2.34" shape="607.48,432.52 607.17,433.36 606.05,434.28"/>
    </edge>
    <edge id=":1953446556_0" function="internal">
        <lane id=":1953446556_0_0" index="0" allow="bicycle pedestrian" speed="2.78" length="5.01" width="2.00" shape="675.81,431.68 670.83,432.25"/>
    </edge>
    <edge id=":229186311_0" function="internal">
        <lane id=":229186311_0_0" index="0" disallow="tram rail_urban rail rail_electric ship" speed="3.65" length="4.67" shape="578.54,220.23 579.26,218.98 580.03,218.52 580.85,218.87 581.74,220.01"/>
    </edge>
    <edge id=":2428416606_0" function="internal">
        <lane id=":2428416606_0_0" index="0" disallow="tram rail_urban rail rail_electric ship" speed="13.89" length="8.43" shape="895.05,405.05 892.65,405.84 891.24,407.11 889.83,408.37 887.43,409.13"/>
        <lane id=":2428416606_0_1" index="1" disallow="tram rail_urban rail rail_electric ship" speed="13.89" length="8.43" shape="895.05,405.05 887.08,405.95"/>
    </edge>
    <edge id=":2428416606_2" function="internal">
        <lane id=":2428416606_2_0" index="0" disallow="tram rail_urban rail rail_electric ship" speed="13.89" length="7.98" shape="886.39,399.59 894.30,398.70"/>
        <lane id=":2428416606_2_1" index="1" disallow="tram rail_urban rail rail_electric ship" speed="13.89" length="7.98" shape="886.74,402.77 894.67,401.87"/>
    </edge>
    <edge id=":248610156_0" function="internal">
        <lane id=":248610156_0_0" index="0" disallow="tram rail_urban rail rail_electric ship" speed="13.89" length="4.12" shape="597.16,423.86 596.75,419.76"/>
    </edge>
    <edge id=":248610156_1" function="internal">
        <lane id=":248610156_1_0" index="0" disallow="tram rail_urban rail rail_electric ship" speed="3.65" length="2.34" shape="597.16,423.86 597.83,422.58 598.59,422.11"/>
    </edge>
    <edge id=":248610156_4" function="internal">
        <lane id=":248610156_4_0" index="0" disallow="tram rail_urban rail rail_electric ship" speed="3.65" length="2.34" shape="598.59,422.11 599.42,422.42 600.34,423.54"/>
    </edge>
    <edge id=":248610156_2" function="internal">
        <lane id=":248610156_2_0" index="0" disallow="tram rail_urban rail rail_electric ship" speed="13.89" length="4.12" shape="599.93,419.44 600.34,423.54"/>
    </edge>
    <edge id=":248610156_3" function="internal">
        <lane id=":248610156_3_0" index="0" disallow="tram rail_urban rail rail_electric ship" speed="3.65" length="2.34" shape="599.93,419.44 599.25,420.71 598.50,421.19"/>
    </edge>
    <edge id=":248610156_5" function="internal">
        <lane id=":248610156_5_0" index="0" disallow="tram rail_urban rail rail_electric ship" speed="3.65" length="2.34" shape="598.50,421.19 597.66,420.87 596.75,419.76"/>
    </edge>
    <edge id=":248610157_0" function="internal">
        <lane id=":248610157_0_0" index="0" allow="bicycle pedestrian" speed="5.55" length="7.81" width="2.00" shape="710.80,412.75 704.85,407.69"/>
    </edge>
    <edge id=":248610157_1" function="internal">
        <lane id=":248610157_1_0" index="0" allow="bicycle" speed="2.64" length="1.82" width="1.00" shape="710.80,412.75 710.52,412.26 710.52,411.92 710.80,411.71 711.36,411.64"/>
    </edge>
    <edge id=":248610158_0" function="internal">
        <lane id=":248610158_0_0" index="0" disallow="tram rail_urban rail rail_electric ship" speed="13.89" length="5.04" shape="854.97,397.32 854.43,392.31"/>
    </edge>
    <edge id=":248610158_1" function="internal">
        <lane id=":248610158_1_0" index="0" disallow="tram rail_urban rail rail_electric ship" speed="3.65" length="2.34" shape="854.97,397.32 855.61,396.03 856.35,395.53"/>
    </edge>
    <edge id=":248610158_4" function="internal">
        <lane id=":248610158_4_0" index="0" disallow="tram rail_urban rail rail_electric ship" speed="3.65" length="2.34" shape="856.35,395.53 857.19,395.83 858.14,396.91"/>
    </edge>
    <edge id=":248610158_2" function="internal">
        <lane id=":248610158_2_0" index="0" disallow="tram rail_urban rail rail_electric ship" speed="13.89" length="4.92" shape="857.61,392.03 858.14,396.91"/>
    </edge>
    <edge id=":248610158_3" function="internal">
        <lane id=":248610158_3_0" index="0" disallow="tram rail_urban rail rail_electric ship" speed="3.65" length="2.34" shape="857.61,392.03 856.92,393.29 856.16,393.76"/>
    </edge>
    <edge id=":248610158_5" function="internal">
        <lane id=":248610158_5_0" index="0" disallow="tram rail_urban rail rail_electric ship" speed="3.65" length="2.34" shape="856.16,393.76 855.33,393.43 854.43,392.31"/>
    </edge>
    <edge id=":248610159_0" function="internal">
        <lane id=":248610159_0_0" index="0" disallow="tram rail_urban rail rail_electric ship" speed="12.84" length="5.12" shape="945.64,391.10 945.00,389.74 944.77,388.74 944.72,387.67 944.69,386.15"/>
    </edge>
    <edge id=":248610159_1" function="internal">
        <lane id=":248610159_1_0" index="0" allow="bicycle pedestrian" speed="4.13" length="3.96" width="2.00" shape="945.64,391.10 945.54,390.47 945.99,389.97 947.00,389.62 948.56,389.41"/>
    </edge>
    <edge id=":26869963_0" function="internal">
        <lane id=":26869963_0_0" index="0" disallow="tram rail_urban rail rail_electric ship" speed="6.45" length="8.42" shape="1049.25,392.63 1048.08,390.49 1046.60,389.16 1044.81,388.66 1042.71,388.98"/>
    </edge>
    <edge id=":26869963_1" function="internal">
        <lane id=":26869963_1_0" index="0" disallow="tram rail_urban rail rail_electric ship" speed="13.89" length="17.76" shape="1049.25,392.63 1047.60,387.10 1047.02,382.61 1046.71,378.78 1045.88,375.26"/>
    </edge>
    <edge id=":26869963_2" function="internal">
        <lane id=":26869963_2_0" index="0" disallow="tram rail_urban rail rail_electric ship" speed="3.65" length="2.56" shape="1052.22,391.45 1052.53,390.04 1053.12,389.37 1053.34,389.39"/>
    </edge>
    <edge id=":26869963_9" function="internal">
        <lane id=":26869963_9_0" index="0" disallow="tram rail_urban rail rail_electric ship" speed="3.65" length="2.12" shape="1053.34,389.39 1054.01,389.45 1055.20,390.27"/>
    </edge>
    <edge id=":26869963_3" function="internal">
        <lane id=":26869963_3_0" index="0" disallow="tram rail_urban rail rail_electric ship" speed="13.89" length="17.72" shape="1051.84,372.94 1053.46,378.46 1054.03,382.95 1054.35,386.76 1055.20,390.27"/>
    </edge>
    <edge id=":26869963_4" function="internal">
        <lane id=":26869963_4_0" index="0" disallow="tram rail_urban rail rail_electric ship" speed="8.90" length="10.77" shape="1048.86,374.10 1050.15,379.33 1049.55,383.55 1048.87,384.43"/>
    </edge>
    <edge id=":26869963_5" function="internal">
        <lane id=":26869963_5_0" index="0" disallow="tram rail_urban rail rail_electric ship" speed="3.65" length="2.55" shape="1048.86,374.10 1048.55,375.51 1047.95,376.17 1047.73,376.15"/>
    </edge>
    <edge id=":26869963_10" function="internal">
        <lane id=":26869963_10_0" index="0" disallow="tram rail_urban rail rail_electric ship" speed="8.90" length="7.84" shape="1048.87,384.43 1047.07,386.77 1042.71,388.98"/>
    </edge>
    <edge id=":26869963_11" function="internal">
        <lane id=":26869963_11_0" index="0" disallow="tram rail_urban rail rail_electric ship" speed="3.65" length="2.12" shape="1047.73,376.15 1047.06,376.09 1045.88,375.26"/>
    </edge>
    <edge id=":26869963_6" function="internal">
        <lane id=":26869963_6_0" index="0" disallow="tram rail_urban rail rail_electric ship" speed="6.84" length="10.56" shape="1040.75,382.89 1043.76,381.54 1045.63,379.82 1046.33,377.73 1045.88,375.26"/>
    </edge>
    <edge id=":26869963_7" function="internal">
        <lane id=":26869963_7_0" index="0" disallow="tram rail_urban rail rail_electric ship" speed="8.63" length="15.84" shape="1041.73,385.93 1046.48,384.95 1050.30,385.34 1053.21,387.12 1055.20,390.27"/>
    </edge>
    <edge id=":26869963_8" function="internal">
        <lane id=":26869963_8_0" index="0" disallow="tram rail_urban rail rail_electric ship" speed="3.65" length="2.58" shape="1041.73,385.93 1043.11,386.33 1043.74,386.96 1043.70,387.21"/>
    </edge>
    <edge id=":26869963_12" function="internal">
        <lane id=":26869963_12_0" index="0" disallow="tram rail_urban rail rail_electric ship" speed="3.65" length="2.09" shape="1043.70,387.21 1043.60,387.85 1042.71,388.98"/>
    </edge>
    <edge id=":26869964_0" function="internal">
        <lane id=":26869964_0_0" index="0" disallow="tram rail_urban rail rail_electric ship" speed="13.89" length="14.99" shape="1072.83,451.93 1071.21,447.85 1070.81,444.77 1070.43,441.69 1068.83,437.59"/>
        <lane id=":26869964_0_1" index="1" disallow="tram rail_urban rail rail_electric ship" speed="13.89" length="14.99" shape="1075.65,450.42 1074.03,446.34 1073.64,443.27 1073.25,440.19 1071.66,436.10"/>
    </edge>
    <edge id=":26869964_2" function="internal">
        <lane id=":26869964_2_0" index="0" disallow="tram rail_urban rail rail_electric ship" speed="7.58" length="7.82" shape="1078.47,448.91 1076.41,443.88 1076.34,441.50"/>
    </edge>
    <edge id=":26869964_3" function="internal">
        <lane id=":26869964_3_0" index="0" disallow="tram rail_urban rail rail_electric ship" speed="3.65" length="2.34" shape="1078.47,448.91 1078.61,447.47 1079.12,446.74"/>
    </edge>
    <edge id=":26869964_10" function="internal">
        <lane id=":26869964_10_0" index="0" disallow="tram rail_urban rail rail_electric ship" speed="7.58" length="8.46" shape="1076.34,441.50 1076.31,440.13 1078.16,437.66 1081.98,436.46"/>
    </edge>
    <edge id=":26869964_11" function="internal">
        <lane id=":26869964_11_0" index="0" disallow="tram rail_urban rail rail_electric ship" speed="3.65" length="2.34" shape="1079.12,446.74 1080.02,446.71 1081.29,447.39"/>
    </edge>
    <edge id=":26869964_4" function="internal">
        <lane id=":26869964_4_0" index="0" disallow="tram rail_urban rail rail_electric ship" speed="6.26" length="10.66" shape="1084.04,439.44 1081.39,440.23 1080.05,441.81 1080.02,444.20 1081.29,447.39"/>
    </edge>
    <edge id=":26869964_5" function="internal">
        <lane id=":26869964_5_0" index="0" disallow="tram rail_urban rail rail_electric ship" speed="9.14" length="13.53" shape="1084.04,439.44 1079.51,439.67 1075.94,439.19 1073.33,438.00 1071.66,436.10"/>
    </edge>
    <edge id=":26869964_6" function="internal">
        <lane id=":26869964_6_0" index="0" disallow="tram rail_urban rail rail_electric ship" speed="3.81" length="3.54" shape="1084.04,439.44 1082.40,439.47 1081.52,438.98 1081.39,438.10"/>
    </edge>
    <edge id=":26869964_12" function="internal">
        <lane id=":26869964_12_0" index="0" disallow="tram rail_urban rail rail_electric ship" speed="3.81" length="1.75" shape="1081.39,438.10 1081.38,437.98 1081.98,436.46"/>
    </edge>
    <edge id=":26869964_7" function="internal">
        <lane id=":26869964_7_0" index="0" disallow="tram rail_urban rail rail_electric ship" speed="7.21" length="8.12" shape="1074.49,434.61 1075.47,435.69 1077.04,436.35 1079.21,436.61 1081.98,436.46"/>
    </edge>
    <edge id=":26869964_8" function="internal">
        <lane id=":26869964_8_0" index="0" disallow="tram rail_urban rail rail_electric ship" speed="13.89" length="14.48" shape="1074.49,434.61 1081.29,447.39"/>
    </edge>
    <edge id=":26869964_9" function="internal">
        <lane id=":26869964_9_0" index="0" disallow="tram rail_urban rail rail_electric ship" speed="3.65" length="2.52" shape="1074.49,434.61 1074.35,436.04 1073.82,436.77 1073.64,436.77"/>
    </edge>
    <edge id=":26869964_13" function="internal">
        <lane id=":26869964_13_0" index="0" disallow="tram rail_urban rail rail_electric ship" speed="3.65" length="2.15" shape="1073.64,436.77 1072.93,436.79 1071.66,436.10"/>
    </edge>
    <edge id=":26869966_0" function="internal">
        <lane id=":26869966_0_0" index="0" disallow="tram rail_urban rail rail_electric ship" speed="3.65" length="4.67" shape="1117.30,494.85 1117.72,496.23 1117.52,497.11 1116.70,497.47 1115.26,497.33"/>
    </edge>
    <edge id=":292822821_0" function="internal">
        <lane id=":292822821_0_0" index="0" disallow="tram rail_urban rail rail_electric ship" speed="8.33" length="6.20" shape="764.67,388.96 758.51,389.68"/>
    </edge>
    <edge id=":292822821_1" function="internal">
        <lane id=":292822821_1_0" index="0" disallow="tram rail_urban rail rail_electric ship" speed="5.11" length="5.04" shape="761.27,386.18 761.20,387.58 760.72,388.62 759.82,389.32 758.51,389.68"/>
    </edge>
    <edge id=":296514498_0" function="internal">
        <lane id=":296514498_0_0" index="0" disallow="tram rail_urban rail rail_electric ship" speed="13.89" length="4.02" shape="1042.52,389.04 1041.38,389.39 1040.59,389.60 1039.79,389.75 1038.61,389.95"/>
    </edge>
    <edge id=":296514498_1" function="internal">
        <lane id=":296514498_1_0" index="0" disallow="tram rail_urban rail rail_electric ship" speed="3.65" length="2.34" shape="1042.52,389.04 1041.13,388.64 1040.50,388.01"/>
    </edge>
    <edge id=":296514498_5" function="internal">
        <lane id=":296514498_5_0" index="0" disallow="tram rail_urban rail rail_electric ship" speed="3.65" length="2.34" shape="1040.50,388.01 1040.64,387.12 1041.54,385.99"/>
    </edge>
    <edge id=":296514498_2" function="internal">
        <lane id=":296514498_2_0" index="0" disallow="tram rail_urban rail rail_electric ship" speed="13.89" length="3.32" shape="1037.55,383.64 1038.46,383.49 1039.07,383.37 1039.68,383.22 1040.56,382.95"/>
        <lane id=":296514498_2_1" index="1" disallow="tram rail_urban rail rail_electric ship" speed="13.89" length="3.32" shape="1038.08,386.79 1039.12,386.62 1039.83,386.49 1040.53,386.31 1041.54,385.99"/>
    </edge>
    <edge id=":296514498_4" function="internal">
        <lane id=":296514498_4_0" index="0" disallow="tram rail_urban rail rail_electric ship" speed="3.65" length="2.34" shape="1038.08,386.79 1039.40,387.38 1039.92,388.10"/>
    </edge>
    <edge id=":296514498_6" function="internal">
        <lane id=":296514498_6_0" index="0" disallow="tram rail_urban rail rail_electric ship" speed="3.65" length="2.34" shape="1039.92,388.10 1039.66,388.96 1038.61,389.95"/>
    </edge>
    <edge id=":296514585_0" function="internal">
        <lane id=":296514585_0_0" index="0" disallow="tram rail_urban rail rail_electric ship" speed="13.89" length="0.35" shape="1013.98,393.55 1013.63,393.59"/>
    </edge>
    <edge id=":296514585_1" function="internal">
        <lane id=":296514585_1_0" index="0" disallow="tram rail_urban rail rail_electric ship" speed="13.89" length="1.35" shape="1010.71,387.33 1013.19,387.20"/>
        <lane id=":296514585_1_1" index="1" disallow="tram rail_urban rail rail_electric ship" speed="13.89" length="1.35" shape="1013.37,390.40 1013.59,390.37"/>
    </edge>
    <edge id=":297303490_0" function="internal">
        <lane id=":297303490_0_0" index="0" disallow="tram rail_urban rail rail_electric ship" speed="8.33" length="6.21" shape="752.98,390.33 746.81,391.03"/>
    </edge>
    <edge id=":297303490_1" function="internal">
        <lane id=":297303490_1_0" index="0" allow="delivery bicycle pedestrian" speed="5.13" length="5.06" shape="752.98,390.33 751.63,390.28 750.59,389.81 749.88,388.89 749.47,387.55"/>
    </edge>
    <edge id=":297303495_0" function="internal">
        <lane id=":297303495_0_0" index="0" allow="delivery bicycle pedestrian" speed="5.56" length="6.38" shape="759.17,344.22 759.10,346.08 758.67,347.34 758.23,348.59 758.15,350.45"/>
    </edge>
    <edge id=":297303495_1" function="internal">
        <lane id=":297303495_1_0" index="0" allow="delivery bicycle pedestrian" speed="3.65" length="4.67" shape="759.17,344.22 758.49,345.49 757.74,345.97 756.90,345.65 755.99,344.54"/>
    </edge>
    <edge id=":297303495_2" function="internal">
        <lane id=":297303495_2_0" index="0" allow="delivery bicycle pedestrian" speed="5.00" length="5.00" shape="753.35,348.02 754.63,347.72 755.49,347.04 755.94,345.98 755.99,344.54"/>
    </edge>
    <edge id=":297303495_3" function="internal">
        <lane id=":297303495_3_0" index="0" allow="delivery bicycle pedestrian" speed="5.47" length="6.01" shape="753.35,348.02 755.36,348.04 756.83,348.46 757.75,349.26 758.15,350.45"/>
    </edge>
    <edge id=":297303500_0" function="internal">
        <lane id=":297303500_0_0" index="0" allow="delivery bicycle pedestrian" speed="5.12" length="5.02" shape="748.02,376.89 747.67,375.59 746.97,374.69 745.93,374.20 744.55,374.11"/>
    </edge>
    <edge id=":297303500_1" function="internal">
        <lane id=":297303500_1_0" index="0" allow="delivery bicycle pedestrian" speed="5.56" length="6.15" shape="748.02,376.89 747.40,370.77"/>
    </edge>
    <edge id=":297303612_0" function="internal">
        <lane id=":297303612_0_0" index="0" allow="delivery bicycle pedestrian" speed="3.65" length="4.67" shape="750.53,289.10 751.21,287.82 751.96,287.35 752.80,287.67 753.71,288.78"/>
    </edge>
    <edge id=":31065875_0" function="internal">
        <lane id=":31065875_0_0" index="0" disallow="tram rail_urban rail rail_electric ship" speed="13.89" length="14.20" shape="1037.24,348.52 1036.24,345.02 1035.38,341.64 1034.83,338.22 1034.72,334.62"/>
    </edge>
    <edge id=":31065875_1" function="internal">
        <lane id=":31065875_1_0" index="0" disallow="tram rail_urban rail rail_electric ship" speed="3.66" length="2.11" shape="1037.24,348.52 1037.84,347.20 1038.37,346.81"/>
    </edge>
    <edge id=":31065875_5" function="internal">
        <lane id=":31065875_5_0" index="0" disallow="tram rail_urban rail rail_electric ship" speed="3.66" length="2.59" shape="1038.37,346.81 1038.57,346.67 1039.43,346.93 1040.42,347.99"/>
    </edge>
    <edge id=":31065875_2" function="internal">